[Format]      =  4.0
[Frequency]   =  0
[Precision]   =  1e-008
[MinAngle]    =  30
[DoSmartMesh] =  1
[Depth]       =  70
[LengthUnits] =  millimeters
[ProblemType] =  planar
[Coordinates] =  cartesian
[ACSolver]    =  0
[PrevType]    =  0
[PrevSoln]    =  ""
[Comment]     =  "Add comments here."
[PointProps]   = 0
[BdryProps]   = 0
[BlockProps]  = 0
[CircuitProps]  = 0
[NumPoints] = 774
86.681889999999981	61.521883000000003	0	2
71.489791999999994	51.370846999999991	0	2
68.123347999999993	55.758082000000002	0	2
81.860499000000004	67.805240999999995	0	2
106.219735	16.770500999999999	0	2
106.94091	11.292631	0	2
8.7435629999999982	87.597398999999967	0	2
9.9385680000000001	105.82966	0	2
73.030422000000002	43.492038999999998	0	2
73.600076000000001	43.820928999999992	0	2
66.728785999999999	52.652341999999997	0	2
67.250637999999995	53.052773000000002	0	2
80.233354999999989	36.226551999999998	0	2
96.620458000000013	44.307777000000002	0	2
56.540219	90.010531	0	2
46.389183000000003	74.818432999999999	0	2
67.805240999999995	81.860499000000004	0	2
55.758082000000002	68.123347999999993	0	2
78.082487	33.587575999999999	0	2
78.690196	33.839297000000002	0	2
25.154610000000002	104.552032	0	2
30.491484	103.122021	0	2
11.292631	106.94091	0	2
16.770500999999999	106.219735	0	2
74.818432999999999	46.389183000000003	0	2
90.010531	56.540219	0	2
41.60007199999999	77.583427999999998	0	2
49.681297999999991	93.970530999999994	0	2
83.029188999999988	21.057037000000001	0	2
82.393821000000003	20.886794999999999	0	2
61.376868999999999	59.750523000000001	0	2
60.91174500000001	59.285406000000002	0	2
68.650789000000003	51.228059999999999	0	2
68.128934999999998	50.827632999999992	0	2
9.9535490000000006	84.415205000000014	0	2
10.039407000000001	85.067357000000001	0	2
20.102515	85.706727000000015	0	2
23.667085	103.62702899999999	0	2
63.250160000000001	86.967230000000001	0	2
67.633546999999993	83.603738000000007	0	2
12.31973	84.76714699999998	0	2
12.233867999999999	84.114996000000005	0	2
105.82966	9.9385680000000001	0	2
87.597398999999967	8.7435629999999982	0	2
3.9599999999999991	106.22151599999999	0	2
2.7649940000000002	87.989255000000014	0	2
107.5	2.7625690000000001	0	2
107.5	0	0	2
41.500180999999991	74.180421999999979	0	2
41.829070999999999	74.750076000000007	0	2
99.651311000000007	36.990651	0	2
82.349590000000006	31.117508000000001	0	2
31.317218	101.57718199999999	0	2
25.444075000000002	84.275461000000007	0	2
59.285401999999998	60.911748000000003	0	2
59.750523000000001	61.376868999999999	0	2
31.462653	78.962659000000002	0	2
31.714375	79.570368000000002	0	2
81.798539000000005	23.108419999999999	0	2
82.433904999999982	23.278666000000001	0	2
103.62702899999999	23.667085	0	2
85.706727000000015	20.102515	0	2
84.992220000000003	1.149999999999999	0	2
85.650000000000006	1.149999999999999	0	2
43.820928999999992	73.600076000000001	0	2
43.492035000000001	73.030423999999982	0	2
23.278666000000001	82.433904999999982	0	2
23.108415999999998	81.798540000000003	0	2
51.357545000000002	94.479015999999987	0	2
56.142454999999991	91.716446000000005	0	2
60.262653	64.172944999999999	0	2
72.30981199999998	77.910096999999979	0	2
77.910096999999979	72.30981199999998	0	2
64.172944999999999	60.262653	0	2
31.117508000000001	82.349590000000006	0	2
36.990651	99.651311000000007	0	2
74.060547	77.967410000000001	0	2
77.967410000000001	74.060547	0	2
33.839297000000002	78.690196	0	2
33.587572000000002	78.082488999999981	0	2
98.259860000000003	43.690750000000001	0	2
100.374239	38.586188	0	2
84.114994999999965	12.233872	0	2
84.76714699999998	12.31973	0	2
51.370846999999991	71.489791999999994	0	2
61.521883000000003	86.681889999999981	0	2
93.970530999999994	49.681297999999991	0	2
77.583427999999998	41.60007199999999	0	2
20.886790999999999	82.393821999999986	0	2
21.057037000000001	83.029188999999988	0	2
85.067357000000001	10.039407000000001	0	2
84.415205000000014	9.9535540000000005	0	2
38.586188	100.374239	0	2
43.690750000000001	98.259860000000003	0	2
1.149999999999999	85.650000000000006	0	2
1.1499950000000001	84.992220000000003	0	2
87.989255000000014	2.7649940000000002	0	2
106.22151599999999	3.9599999999999991	0	2
53.052773000000002	67.250637999999995	0	2
52.652338	66.728789000000006	0	2
50.827629000000002	68.128936999999993	0	2
51.228059999999999	68.650789000000003	0	2
79.570368000000002	31.714375	0	2
78.962656999999979	31.462657	0	2
83.603738000000007	67.633546999999993	0	2
86.967230000000001	63.250160000000001	0	2
91.716446000000005	56.142454999999991	0	2
94.479015999999987	51.357545000000002	0	2
44.307777000000002	96.620458000000013	0	2
36.226551999999998	80.233354999999989	0	2
74.750076000000007	41.829070999999999	0	2
74.180419999999984	41.500185000000002	0	2
84.275461000000007	25.444075000000002	0	2
101.57718199999999	31.317218	0	2
17.790811999999999	104.79589300000001	0	2
14.226241999999999	86.875590999999986	0	2
86.875590999999986	14.226241999999999	0	2
104.79589300000001	17.790811999999999	0	2
103.122021	30.491484	0	2
104.552032	25.154610000000002	0	2
6.6e-015	107.5	0	2
2.7625690000000001	107.5	0	2
85.650000000000006	0	0	2
-78.962659000000002	31.462653	0	2
-79.570368000000002	31.714375	0	2
-85.650000000000006	1.149999999999999	0	2
-84.992220000000003	1.1499950000000001	0	2
-77.583427999999998	41.60007199999999	0	2
-93.970530999999994	49.681297999999991	0	2
-82.349590000000006	31.117508000000001	0	2
-99.651311000000007	36.990651	0	2
-82.433904999999982	23.278666000000001	0	2
-81.798540000000003	23.108415999999998	0	2
-86.967230000000001	63.250160000000001	0	2
-83.603738000000007	67.633546999999993	0	2
-84.415205000000014	9.9535490000000006	0	2
-85.067357000000001	10.039407000000001	0	2
-67.633546999999993	83.603738000000007	0	2
-63.250160000000001	86.967230000000001	0	2
-12.233872	84.114994999999965	0	2
-12.31973	84.76714699999998	0	2
-16.770500999999999	106.219735	0	2
-11.292631	106.94091	0	2
-43.690750000000001	98.259860000000003	0	2
-38.586188	100.374239	0	2
-10.039407000000001	85.067357000000001	0	2
-9.9535540000000005	84.415205000000014	0	2
-56.142454999999991	91.716446000000005	0	2
-51.357545000000002	94.479015999999987	0	2
-81.860499000000004	67.805240999999995	0	2
-68.123347999999993	55.758082000000002	0	2
-23.667085	103.62702899999999	0	2
-20.102515	85.706727000000015	0	2
-59.750523000000001	61.376868999999999	0	2
-59.285406000000002	60.91174500000001	0	2
-104.552032	25.154610000000002	0	2
-103.122021	30.491484	0	2
-85.706727000000015	20.102515	0	2
-103.62702899999999	23.667085	0	2
-23.108419999999999	81.798539000000005	0	2
-23.278666000000001	82.433904999999982	0	2
-51.228059999999999	68.650789000000003	0	2
-50.827632999999992	68.128934999999998	0	2
-55.758082000000002	68.123347999999993	0	2
-67.805240999999995	81.860499000000004	0	2
-94.479015999999987	51.357545000000002	0	2
-91.716446000000005	56.142454999999991	0	2
-84.76714699999998	12.31973	0	2
-84.114996000000005	12.233867999999999	0	2
-36.990651	99.651311000000007	0	2
-31.117508000000001	82.349590000000006	0	2
-73.600076000000001	43.820928999999992	0	2
-73.030423999999982	43.492035000000001	0	2
-100.374239	38.586188	0	2
-98.259860000000003	43.690750000000001	0	2
-71.489791999999994	51.370846999999991	0	2
-86.681889999999981	61.521883000000003	0	2
-68.128936999999993	50.827629000000002	0	2
-68.650789000000003	51.228059999999999	0	2
-72.30981199999998	77.910096999999979	0	2
-60.262653	64.172944999999999	0	2
-1.149999999999999	84.992220000000003	0	2
-1.149999999999999	85.650000000000006	0	2
-31.714375	79.570368000000002	0	2
-31.462657	78.962656999999979	0	2
-104.79589300000001	17.790811999999999	0	2
-86.875590999999986	14.226241999999999	0	2
-30.491484	103.122021	0	2
-25.154610000000002	104.552032	0	2
-43.492038999999998	73.030422000000002	0	2
-43.820928999999992	73.600076000000001	0	2
-41.829070999999999	74.750076000000007	0	2
-41.500185000000002	74.180419999999984	0	2
-77.967410000000001	74.060547	0	2
-74.060547	77.967410000000001	0	2
-82.393821999999986	20.886790999999999	0	2
-83.029188999999988	21.057037000000001	0	2
-25.444075000000002	84.275461000000007	0	2
-31.317218	101.57718199999999	0	2
-67.250637999999995	53.052773000000002	0	2
-66.728789000000006	52.652338	0	2
-46.389183000000003	74.818432999999999	0	2
-56.540219	90.010531	0	2
-60.911748000000003	59.285401999999998	0	2
-61.376868999999999	59.750523000000001	0	2
-74.180421999999979	41.500180999999991	0	2
-74.750076000000007	41.829070999999999	0	2
-87.597398999999967	8.7435629999999982	0	2
-105.82966	9.9385680000000001	0	2
-96.620458000000013	44.307777000000002	0	2
-80.233354999999989	36.226551999999998	0	2
-2.7649940000000002	87.989255000000014	0	2
-3.9599999999999991	106.22151599999999	0	2
-33.587575999999999	78.082487	0	2
-33.839297000000002	78.690196	0	2
-52.652341999999997	66.728785999999999	0	2
-53.052773000000002	67.250637999999995	0	2
-21.057037000000001	83.029188999999988	0	2
-20.886794999999999	82.393821000000003	0	2
-64.172944999999999	60.262653	0	2
-77.910096999999979	72.30981199999998	0	2
-78.690196	33.839297000000002	0	2
-78.082488999999981	33.587572000000002	0	2
-61.521883000000003	86.681889999999981	0	2
-51.370846999999991	71.489791999999994	0	2
-36.226551999999998	80.233354999999989	0	2
-44.307777000000002	96.620458000000013	0	2
-106.94091	11.292631	0	2
-106.219735	16.770500999999999	0	2
-90.010531	56.540219	0	2
-74.818432999999999	46.389183000000003	0	2
-14.226241999999999	86.875590999999986	0	2
-17.790811999999999	104.79589300000001	0	2
-106.22151599999999	3.9599999999999991	0	2
-87.989255000000014	2.7649940000000002	0	2
-2.7625690000000001	107.5	0	2
-49.681297999999991	93.970530999999994	0	2
-41.60007199999999	77.583427999999998	0	2
-101.57718199999999	31.317218	0	2
-84.275461000000007	25.444075000000002	0	2
-9.9385680000000001	105.82966	0	2
-8.7435629999999982	87.597398999999967	0	2
-107.5	0	0	2
-107.5	2.7625690000000001	0	2
-85.650000000000006	0	0	2
-86.681890000000024	-61.521883000000003	0	2
-71.489791999999994	-51.370846999999991	0	2
-68.123347999999993	-55.758082000000002	0	2
-81.860499000000033	-67.805240999999981	0	2
-106.219735	-16.770500999999982	0	2
-106.94091	-11.292630999999989	0	2
-8.7435630000000089	-87.597398999999967	0	2
-9.9385680000000125	-105.82966	0	2
-73.030422000000002	-43.492038999999991	0	2
-73.600076000000001	-43.820928999999992	0	2
-66.728785999999999	-52.65234199999999	0	2
-67.250637999999995	-53.052773000000002	0	2
-80.233354999999989	-36.226551999999991	0	2
-96.620458000000013	-44.307776999999987	0	2
-56.540219000000022	-90.010531	0	2
-46.38918300000001	-74.818432999999999	0	2
-67.805240999999995	-81.860498999999976	0	2
-55.758082000000002	-68.123347999999993	0	2
-78.082487	-33.587575999999991	0	2
-78.690196	-33.839296999999988	0	2
-25.154610000000019	-104.552032	0	2
-30.49148400000001	-103.122021	0	2
-11.292631000000011	-106.94091	0	2
-16.77050100000001	-106.219735	0	2
-74.818432999999999	-46.389183000000003	0	2
-90.010531	-56.540219	0	2
-41.60007199999999	-77.583427999999998	0	2
-49.681298000000012	-93.970530999999994	0	2
-83.029188999999988	-21.05703699999999	0	2
-82.393821000000003	-20.886794999999989	0	2
-61.376869000000013	-59.750523000000001	0	2
-60.91174500000001	-59.285406000000002	0	2
-68.650789000000003	-51.228059999999992	0	2
-68.128934999999998	-50.827632999999992	0	2
-9.9535490000000131	-84.415205000000014	0	2
-10.03940700000001	-85.067357000000001	0	2
-20.102515000000011	-85.706727000000015	0	2
-23.667085000000011	-103.62702899999999	0	2
-63.250160000000008	-86.967229999999986	0	2
-67.633546999999993	-83.603737999999964	0	2
-12.319730000000011	-84.76714699999998	0	2
-12.23386800000001	-84.114996000000005	0	2
-105.82966	-9.9385679999999876	0	2
-87.597398999999967	-8.7435629999999893	0	2
-3.960000000000012	-106.22151599999999	0	2
-2.7649940000000099	-87.989255000000014	0	2
-107.5	-2.7625689999999858	0	2
-41.500181000000012	-74.180421999999979	0	2
-41.829070999999999	-74.750076000000007	0	2
-99.651311000000007	-36.990650999999993	0	2
-82.349590000000006	-31.11750799999999	0	2
-31.317218000000011	-101.57718199999999	0	2
-25.444075000000009	-84.275461000000007	0	2
-59.285402000000012	-60.911748000000003	0	2
-59.750523000000008	-61.376868999999992	0	2
-31.46265300000001	-78.962659000000002	0	2
-31.714375000000011	-79.570368000000002	0	2
-81.798539000000005	-23.108419999999992	0	2
-82.433904999999982	-23.278665999999991	0	2
-103.62702899999999	-23.667084999999989	0	2
-85.706727000000015	-20.10251499999999	0	2
-84.992220000000003	-1.149999999999989	0	2
-85.650000000000006	-1.149999999999989	0	2
-43.820929	-73.600076000000001	0	2
-43.492035000000001	-73.030423999999982	0	2
-23.278666000000008	-82.433904999999982	0	2
-23.108416000000009	-81.798540000000003	0	2
-51.357545000000009	-94.479015999999987	0	2
-56.142455000000012	-91.716446000000005	0	2
-60.262653000000007	-64.172944999999984	0	2
-72.309811999999994	-77.910096999999979	0	2
-77.910096999999993	-72.30981199999998	0	2
-64.172945000000013	-60.262652999999993	0	2
-31.117508000000011	-82.349590000000006	0	2
-36.990651000000021	-99.651311000000007	0	2
-74.060547000000014	-77.967409999999987	0	2
-77.967410000000015	-74.060546999999985	0	2
-33.839297000000009	-78.690196	0	2
-33.587572000000009	-78.082488999999981	0	2
-98.259860000000003	-43.69074999999998	0	2
-100.374239	-38.586187999999993	0	2
-84.114994999999965	-12.233871999999989	0	2
-84.76714699999998	-12.319729999999989	0	2
-51.370847000000012	-71.489791999999994	0	2
-61.52188300000001	-86.681889999999981	0	2
-93.970530999999994	-49.681297999999977	0	2
-77.583427999999998	-41.60007199999999	0	2
-20.886791000000009	-82.393821999999986	0	2
-21.057037000000012	-83.029188999999988	0	2
-85.067357000000001	-10.03940699999999	0	2
-84.415205000000014	-9.953553999999988	0	2
-38.586188000000021	-100.374239	0	2
-43.690750000000023	-98.259860000000003	0	2
-1.1500000000000099	-85.650000000000006	0	2
-1.1499950000000101	-84.992220000000003	0	2
-87.989255000000014	-2.7649939999999891	0	2
-106.22151599999999	-3.9599999999999862	0	2
-53.052773000000009	-67.250637999999995	0	2
-52.652338	-66.728789000000006	0	2
-50.827629000000009	-68.128936999999993	0	2
-51.228059999999999	-68.650789000000003	0	2
-79.570368000000002	-31.71437499999999	0	2
-78.962656999999979	-31.462656999999989	0	2
-83.603738000000035	-67.633546999999979	0	2
-86.967230000000015	-63.250160000000001	0	2
-91.716446000000005	-56.142454999999991	0	2
-94.479015999999987	-51.357544999999988	0	2
-44.307777000000009	-96.620458000000013	0	2
-36.226552000000012	-80.233354999999989	0	2
-74.750076000000007	-41.829070999999992	0	2
-74.180419999999984	-41.500185000000002	0	2
-84.275461000000007	-25.444074999999991	0	2
-101.57718199999999	-31.31721799999999	0	2
-17.79081200000001	-104.79589300000001	0	2
-14.22624200000001	-86.875590999999986	0	2
-86.875590999999986	-14.22624199999999	0	2
-104.79589300000001	-17.790811999999981	0	2
-103.122021	-30.491483999999989	0	2
-104.552032	-25.154609999999991	0	2
-1.9700000000000001e-014	-107.5	0	2
-2.7625690000000129	-107.5	0	2
78.962659000000002	-31.46265300000001	0	2
79.570368000000002	-31.714375000000011	0	2
85.650000000000006	-1.1500000000000099	0	2
84.992220000000003	-1.1499950000000101	0	2
77.583427999999998	-41.60007199999999	0	2
93.970530999999994	-49.681298000000012	0	2
82.349590000000006	-31.117508000000011	0	2
99.651311000000007	-36.990651000000021	0	2
82.433904999999982	-23.278666000000008	0	2
81.798540000000003	-23.108416000000009	0	2
86.967229999999986	-63.250160000000008	0	2
83.603737999999964	-67.633546999999993	0	2
84.415205000000014	-9.9535490000000131	0	2
85.067357000000001	-10.03940700000001	0	2
67.633546999999979	-83.603738000000035	0	2
63.250160000000001	-86.967230000000015	0	2
12.233871999999989	-84.114994999999965	0	2
12.319729999999989	-84.76714699999998	0	2
16.770500999999982	-106.219735	0	2
11.292630999999989	-106.94091	0	2
43.69074999999998	-98.259860000000003	0	2
38.586187999999993	-100.374239	0	2
10.03940699999999	-85.067357000000001	0	2
9.953553999999988	-84.415205000000014	0	2
56.142454999999991	-91.716446000000005	0	2
51.357544999999988	-94.479015999999987	0	2
81.860498999999976	-67.805240999999995	0	2
68.123347999999993	-55.758082000000002	0	2
23.667084999999989	-103.62702899999999	0	2
20.10251499999999	-85.706727000000015	0	2
59.750523000000001	-61.376869000000013	0	2
59.285406000000002	-60.91174500000001	0	2
104.552032	-25.154610000000019	0	2
103.122021	-30.49148400000001	0	2
85.706727000000015	-20.102515000000011	0	2
103.62702899999999	-23.667085000000011	0	2
23.108419999999992	-81.798539000000005	0	2
23.278665999999991	-82.433904999999982	0	2
51.228059999999992	-68.650789000000003	0	2
50.827632999999992	-68.128934999999998	0	2
55.758082000000002	-68.123347999999993	0	2
67.805240999999981	-81.860499000000033	0	2
94.479015999999987	-51.357545000000009	0	2
91.716446000000005	-56.142455000000012	0	2
84.76714699999998	-12.319730000000011	0	2
84.114996000000005	-12.23386800000001	0	2
36.990650999999993	-99.651311000000007	0	2
31.11750799999999	-82.349590000000006	0	2
73.600076000000001	-43.820929	0	2
73.030423999999982	-43.492035000000001	0	2
100.374239	-38.586188000000021	0	2
98.259860000000003	-43.690750000000023	0	2
71.489791999999994	-51.370847000000012	0	2
86.681889999999981	-61.52188300000001	0	2
68.128936999999993	-50.827629000000009	0	2
68.650789000000003	-51.228059999999999	0	2
72.30981199999998	-77.910096999999993	0	2
60.262652999999993	-64.172945000000013	0	2
1.149999999999989	-84.992220000000003	0	2
1.149999999999989	-85.650000000000006	0	2
31.71437499999999	-79.570368000000002	0	2
31.462656999999989	-78.962656999999979	0	2
104.79589300000001	-17.79081200000001	0	2
86.875590999999986	-14.22624200000001	0	2
30.491483999999989	-103.122021	0	2
25.154609999999991	-104.552032	0	2
43.492038999999991	-73.030422000000002	0	2
43.820928999999992	-73.600076000000001	0	2
41.829070999999992	-74.750076000000007	0	2
41.500185000000002	-74.180419999999984	0	2
77.967409999999987	-74.060547000000014	0	2
74.060546999999985	-77.967410000000015	0	2
82.393821999999986	-20.886791000000009	0	2
83.029188999999988	-21.057037000000012	0	2
25.444074999999991	-84.275461000000007	0	2
31.31721799999999	-101.57718199999999	0	2
67.250637999999995	-53.052773000000009	0	2
66.728789000000006	-52.652338	0	2
46.389183000000003	-74.818432999999999	0	2
56.540219	-90.010531	0	2
60.911748000000003	-59.285402000000012	0	2
61.376868999999992	-59.750523000000008	0	2
74.180421999999979	-41.500181000000012	0	2
74.750076000000007	-41.829070999999999	0	2
87.597398999999967	-8.7435630000000089	0	2
105.82966	-9.9385680000000125	0	2
96.620458000000013	-44.307777000000009	0	2
80.233354999999989	-36.226552000000012	0	2
2.7649939999999891	-87.989255000000014	0	2
3.9599999999999862	-106.22151599999999	0	2
33.587575999999991	-78.082487	0	2
33.839296999999988	-78.690196	0	2
52.65234199999999	-66.728785999999999	0	2
53.052773000000002	-67.250637999999995	0	2
21.05703699999999	-83.029188999999988	0	2
20.886794999999989	-82.393821000000003	0	2
64.172944999999984	-60.262653000000007	0	2
77.910096999999979	-72.309811999999994	0	2
78.690196	-33.839297000000009	0	2
78.082488999999981	-33.587572000000009	0	2
61.521883000000003	-86.681890000000024	0	2
51.370846999999991	-71.489791999999994	0	2
36.226551999999991	-80.233354999999989	0	2
44.307776999999987	-96.620458000000013	0	2
106.94091	-11.292631000000011	0	2
106.219735	-16.77050100000001	0	2
90.010531	-56.540219000000022	0	2
74.818432999999999	-46.38918300000001	0	2
14.22624199999999	-86.875590999999986	0	2
17.790811999999981	-104.79589300000001	0	2
106.22151599999999	-3.960000000000012	0	2
87.989255000000014	-2.7649940000000099	0	2
2.7625689999999858	-107.5	0	2
49.681297999999977	-93.970530999999994	0	2
41.60007199999999	-77.583427999999998	0	2
101.57718199999999	-31.317218000000011	0	2
84.275461000000007	-25.444075000000009	0	2
9.9385679999999876	-105.82966	0	2
8.7435629999999893	-87.597398999999967	0	2
107.5	-2.7625690000000129	0	2
-64.981621980111029	20.320811626062358	0	2
-65.018428035615216	-20.37611465424682	0	2
-74.785659255608948	-34.596264810833581	0	2
-65.604527115275943	-22.154717916353309	0	2
-74.78565925561017	34.596264810830398	0	2
-65.567721059771969	22.104841249884771	0	2
64.981621980111029	20.32081162606233	0	2
65.018428035615216	-20.37611465424683	0	2
74.785659255608934	-34.59626481083361	0	2
65.604527115275928	-22.15471791635332	0	2
74.78565925561017	34.59626481083037	0	2
65.567721059771984	22.104841249884728	0	2
-27.04029270636714	64.999999999999986	0	2
27.040292706367151	64.999999999999986	0	2
-28.667236343859511	65.479473388273149	0	2
-39.36306060359211	72.383389080393812	0	2
28.667236343859528	65.479473388273149	0	2
39.36306060359211	72.383389080393798	0	2
-27.04029270636714	-64.999999999999986	0	2
27.040292706367168	-64.999999999999986	0	2
-28.667236343859511	-65.479473388273149	0	2
-39.36306060359211	-72.383389080393812	0	2
28.667236343859539	-65.479473388273149	0	2
39.363060603592118	-72.383389080393812	0	2
-72.645200575772094	-39.105729753280052	0	2
-61.186100306552682	-23.577259931814918	0	2
-60.600000000000001	-21.795943488850629	0	2
-60.600000000000001	21.795943488850639	0	2
-72.645200575772094	39.105729753280073	0	2
-61.186100306552682	23.57725993181494	0	2
-57.59999999999998	-22.783022975262401	0	2
-57.600000000000009	22.78302297526244	0	2
-70.49172448783979	-41.239951747642593	0	2
-58.186100306552689	-24.564339418226691	0	2
-70.49172448783979	41.239951747642628	0	2
-58.186100306552703	24.56433941822673	0	2
-72.707525109334	40.197883515972237	0	2
-72.16331548369989	41.144561215025263	0	2
-72.707525109334	-40.197883515972229	0	2
-72.16331548369989	-41.144561215025263	0	2
-52.100000000000001	-24.592413693754519	0	2
-52.100000000000001	24.59241369375453	0	2
-67.408333074921003	-46.32414001857294	0	2
-52.68610030655271	-26.373730136718802	0	2
-49.100000000000001	-25.579354085659279	0	2
-49.100000000000001	25.579354085659318	0	2
-65.1815222334655	-48.35884543850468	0	2
-49.686100306552689	-27.360670528623579	0	2
-67.4117878664389	-47.506973918187697	0	2
-66.794243487281577	-48.354135042809887	0	2
-67.408333074921003	46.324140018572969	0	2
-52.686100306552689	26.373730136718819	0	2
-65.1815222334655	48.35884543850468	0	2
-49.686100306552703	27.360670528623611	0	2
-67.4117878664389	47.506973918187697	0	2
-66.794243487281577	48.354135042809922	0	2
72.645200575772066	-39.10572975328008	0	2
61.186100306552667	-23.57725993181494	0	2
60.59999999999998	-21.795943488850639	0	2
60.600000000000009	21.795943488850629	0	2
72.645200575772094	39.105729753280038	0	2
61.186100306552703	23.577259931814918	0	2
57.59999999999998	-22.783022975262408	0	2
57.600000000000009	22.783022975262408	0	2
70.49172448783979	-41.239951747642628	0	2
58.186100306552682	-24.564339418226709	0	2
70.491724487839804	41.239951747642593	0	2
58.18610030655271	24.564339418226709	0	2
72.707525109334014	40.197883515972201	0	2
72.163315483699904	41.144561215025249	0	2
72.707525109333986	-40.197883515972258	0	2
72.163315483699876	-41.144561215025291	0	2
52.099999999999987	-24.592413693754519	0	2
52.100000000000001	24.592413693754519	0	2
67.408333074920975	-46.324140018572962	0	2
52.686100306552689	-26.373730136718819	0	2
49.100000000000001	-25.5793540856593	0	2
49.100000000000009	25.5793540856593	0	2
65.181522233465486	-48.358845438504709	0	2
49.686100306552667	-27.360670528623601	0	2
67.411787866438871	-47.506973918187718	0	2
66.794243487281562	-48.354135042809922	0	2
67.408333074921032	46.32414001857294	0	2
52.68610030655271	26.373730136718802	0	2
65.181522233465515	48.358845438504659	0	2
49.686100306552703	27.36067052862359	0	2
67.4117878664389	47.506973918187697	0	2
66.794243487281591	48.354135042809887	0	2
-28.492227766134771	60.700210887664788	0	2
28.492227766134789	60.700210887664788	0	2
-30.119171403627139	61.179684275937973	0	2
-43.553293449787311	69.851110035383641	0	2
-29.464741003432021	57.400210887664791	0	2
29.464741003432039	57.400210887664791	0	2
-31.091684640924392	57.879684275937969	0	2
-45.816660859215141	67.384327575126079	0	2
-45.829342471072003	69.056356023015383	0	2
-44.65060415330575	69.842787408788411	0	2
30.11917140362716	61.179684275937973	0	2
43.553293449787319	69.851110035383613	0	2
31.091684640924409	57.879684275937969	0	2
45.816660859215183	67.384327575126065	0	2
45.829342471072017	69.056356023015354	0	2
44.650604153305771	69.842787408788396	0	2
-31.085596398927429	51.900210887664777	0	2
31.08559639892745	51.900210887664777	0	2
-32.712540036419789	52.379684275937969	0	2
-50.910966460530759	64.126362111168575	0	2
-31.88128904762516	49.200210887664781	0	2
31.881289047625181	49.200210887664781	0	2
-33.508232685117527	49.679684275937952	0	2
-52.55791835854523	61.975830945613303	0	2
-52.657057655870929	63.583168113217617	0	2
-52.094734849518041	64.053348204288369	0	2
32.712540036419817	52.379684275937969	0	2
50.910966460530773	64.126362111168575	0	2
33.508232685117562	49.679684275937952	0	2
52.557918358545237	61.975830945613268	0	2
52.65705765587095	63.583168113217603	0	2
52.094734849518041	64.053348204288355	0	2
-28.492227766134771	-60.700210887664788	0	2
28.492227766134771	-60.700210887664802	0	2
-30.119171403627149	-61.179684275937959	0	2
-43.553293449787319	-69.851110035383613	0	2
-29.464741003432032	-57.400210887664791	0	2
29.464741003432021	-57.400210887664791	0	2
-31.091684640924392	-57.879684275937962	0	2
-45.816660859215183	-67.384327575126065	0	2
-45.829342471072017	-69.056356023015354	0	2
-44.650604153305771	-69.842787408788396	0	2
30.119171403627149	-61.179684275937973	0	2
43.553293449787311	-69.851110035383641	0	2
31.091684640924392	-57.879684275937969	0	2
45.816660859215141	-67.384327575126079	0	2
45.829342471072003	-69.056356023015383	0	2
44.65060415330575	-69.842787408788411	0	2
-31.085596398927429	-51.900210887664777	0	2
31.085596398927439	-51.900210887664798	0	2
-32.71254003641981	-52.379684275937947	0	2
-50.910966460530773	-64.126362111168575	0	2
-31.881289047625181	-49.200210887664781	0	2
31.88128904762517	-49.200210887664781	0	2
-33.508232685117548	-49.679684275937952	0	2
-52.557918358545237	-61.975830945613282	0	2
-52.657057655870958	-63.58316811321761	0	2
-52.094734849518062	-64.053348204288355	0	2
32.71254003641981	-52.379684275937983	0	2
50.910966460530751	-64.126362111168575	0	2
33.508232685117548	-49.679684275937959	0	2
52.55791835854523	-61.975830945613289	0	2
52.657057655870929	-63.583168113217617	0	2
52.094734849518041	-64.053348204288369	0	2
59.673935477053448	53.189337595474349	0	2
42.304291629059591	29.651364808231829	0	2
35.351878104840679	41.818224059251143	0	2
57.33095204576847	55.707799599894173	0	2
29.719464513359391	41.818224059251143	0	2
29.365911122766121	40.964670668657867	0	2
40.792551616723948	29.538030174700051	0	2
59.673935477053448	-53.189337595474349	0	2
42.304291629059591	-29.651364808231829	0	2
35.351878104840679	-41.818224059251143	0	2
57.33095204576847	-55.707799599894173	0	2
29.719464513359391	-41.818224059251143	0	2
29.365911122766121	-40.964670668657867	0	2
40.792551616723948	-29.538030174700051	0	2
-59.67393547705344	53.189337595474349	0	2
-42.304291629059591	29.651364808231829	0	2
-35.351878104840672	41.818224059251158	0	2
-57.330952045768463	55.70779959989418	0	2
-29.719464513359391	41.818224059251158	0	2
-29.365911122766111	40.964670668657881	0	2
-40.792551616723941	29.538030174700051	0	2
-59.673935477053462	-53.189337595474328	0	2
-42.304291629059612	-29.651364808231811	0	2
-35.351878104840701	-41.818224059251129	0	2
-57.330952045768491	-55.707799599894152	0	2
-29.719464513359409	-41.818224059251129	0	2
-29.365911122766128	-40.96467066865786	0	2
-40.792551616723962	-29.53803017470003	0	2
14.731231309511021	1.8000000000000001e-015	0	2
-14.731231309511021	3.6040555270691944e-015	0	2
-75.052195101500999	-37.724899078012498	0	2
-42.508152546309972	-72.450375893432351	0	2
75.052195101500928	-37.724899078012626	0	2
75.052195101502463	37.724899078009599	0	2
42.508152546309823	72.450375893432422	0	2
-42.508152546309844	72.450375893432422	0	2
-75.052195101502505	37.724899078009528	0	2
42.508152546309752	-72.450375893432508	0	2
7.3478807948841199e-015	120	0	1
-2.2043642384652355e-014	-120	0	1
-92.926321783350332	28.380646596184587	0	1
-94.666878606409668	21.88480012062233	0	1
-88.426906737201577	40.267164616974817	0	1
-91.00045079058539	34.054079598640492	0	1
-82.414482381211315	51.464701254717347	0	1
-85.776979693876484	45.640685095609562	0	1
-74.991923861801055	61.781661817291116	0	1
-79.08584105569156	56.446365037211969	0	1
-66.286232691328081	71.041521218167915	0	1
-71.041521218167816	66.286232691328181	0	1
-56.446365037212054	79.085841055691489	0	1
-61.781661817290967	74.991923861801197	0	1
-45.640685095609399	85.776979693876569	0	1
-51.464701254717184	82.414482381211414	0	1
-34.054079598640456	91.000450790585404	0	1
-40.267164616974817	88.426906737201577	0	1
-21.884800120622472	94.666878606409639	0	1
-28.380646596184569	92.926321783350346	0	1
-9.3410655297586551	96.713529954029966	0	1
-16.008527000000022	95.83574200000001	0	1
3.3624970344202842	97.105386025152129	0	1
-3.3624970344202727	97.105386025152129	0	1
16.008527000000015	95.83574200000001	0	1
9.3410655297586871	96.713529954029951	0	1
28.380646596184622	92.926321783350318	0	1
21.884800120622465	94.666878606409639	0	1
40.267164616974846	88.426906737201563	0	1
34.054079598640442	91.000450790585404	0	1
51.464701254717234	82.414482381211371	0	1