[Format]      =  1
[Precision]   =  1e-008
[MinAngle]    =  30
[DoSmartMesh] =  1
[Depth]       =  1
[LengthUnits] =  meters
[ProblemType] =  planar
[Coordinates] =  cartesian
[Comment]     =  "Add comments here."
[PointProps]   = 0
[BdryProps]   = 3
  <BeginBdry>
    <BdryName> = "u"
    <BdryType> = 0
    <Vs> = 10
    <qs> = 0
    <c0> = 0
    <c1> = 0
  <EndBdry>
  <BeginBdry>
    <BdryName> = "gnd"
    <BdryType> = 0
    <Vs> = 0
    <qs> = 0
    <c0> = 0
    <c1> = 0
  <EndBdry>
  <BeginBdry>
    <BdryName> = "Neumann"
    <BdryType> = 2
    <Vs> = 0
    <qs> = 0
    <c0> = 0
    <c1> = 0
  <EndBdry>
[BlockProps]  = 2
  <BeginBlock>
    <BlockName> = "air"
    <ex> = 1
    <ey> = 1
    <qv> = 0
  <EndBlock>
  <BeginBlock>
    <BlockName> = "epoxy"
    <ex> = 3.7000000000000002
    <ey> = 3.7000000000000002
    <qv> = 0
  <EndBlock>
[ConductorProps]  = 0
[NumPoints] = 12
-0.10000000000000001	-0.0050000000000000001	0	0	0
0.10000000000000001	-0.0050000000000000001	0	0	0
-0.10000000000000001	0.0050000000000000001	0	0	0
0.10000000000000001	0.0050000000000000001	0	0	0
-0.10000000000000001	-0.01	0	0	0
0.10000000000000001	-0.01	0	0	0
0.10000000000000001	0.01	0	0	0
-0.10000000000000001	0.01	0	0	0
0.29999999999999993	-2.77555756156e-017	0	0	0
-3.71414492440897e-017	0.29999999999999999	0	0	0
-0.29999999999999999	-1.8771747256879399e-017	0	0	0
4.0204526966910471e-019	-0.29999999999999999	0	0	0
[NumSegments] = 10
0	1	-1	2	0	0	0
2	3	-1	1	0	0	0
2	0	-1	0	0	0	0
3	1	-1	0	0	0	0
4	5	-1	2	0	0	0
6	7	-1	1	0	0	0
4	0	-1	2	0	0	0
2	7	-1	1	0	0	0
3	6	-1	1	0	0	0
1	5	-1	2	0	0	0
[NumArcSegments] = 4
8	9	90	5	3	0	0	0	5
9	10	90	5	3	0	0	0	5
10	11	90	5	3	0	0	0	5
11	8	90	5	3	0	0	0	5
[NumHoles] = 0
[NumBlockLabels] = 4
-0.060999999999999999	0.109	1	-1	0	0
-0.050000000000000003	0.002	2	-1	0	0
0.0521	0.0079000000000000008	1	-1	0	0
0.048500000000000001	-0.0071999999999999998	1	-1	0	0
